MY 7
STUDENTS 9
NEED 2
A 10
HYDROGARDEN 2
PLANTER 2
KIT 2
HERB 2
SEED 3
GREENHOUSE 2
COLD 2
WEATHER 2
THERMO 2
CUBE 2
OUTLET 2
GROWING 3
TENT 2
SO 2
WE 2
CAN 4
EAT 6
HEALTH 3
ALL 5
YEAR 5
LONG 5
COME 1
FROM 1
HARD 1
WORKING 2
ECONOMICALLY 1
DEPRIVED 1
FAMILIES 4
THIS 3
SUMMER 3
I 6
HAVE 6
BEEN 2
ABLE 3
TO 26
CONTINUE 2
WITH 5
THEM 6
IN 2
OUR 1
COMMUNITY 4
GARDEN 1
DISCUSS 1
NUTRITION 1
AND 18
THE 12
IMPORTANCE 2
OF 7
HEALTHY 13
THEIR 4
MANY 3
THESE 1
DEPEND 1
ON 1
GARDENS 2
FOR 3
EATING 8
OVER 1
THEY 20
ASKED 3
HOW 2
IS 7
IT 5
POSSIBLE 1
WANT 8
TEACHING 1
ABOUT 4
BENEFITS 1
BRING 3
BACK 1
AWARENESS 2
WILL 3
BE 4
FRUITS 2
VEGETABLES 3
GROW 5
TRY 2
WORKED 1
EXPRESSED 1
AN 3
INTEREST 1
WINTER 3
GARDENING 3
WANTED 1
FIGURE 1
OUT 1
WAY 2
GET 1
FRESH 2
VEGGIES 1
CAME 1
ME 1
INDOOR 1
RESEARCH 1
WHAT 2
THINK 1
NEEDED 1
KNOW 1
NOT 3
ENOUGH 1
FEED 1
ENTIRES 1
SCHOOL 2
BUT 2
THAT 2
EVENING 1
URBAN 1
SETTING 1
EVEN 1
DURING 2
HARVESTING 1
DIFFERENT 1
LEARN 1
COOK 1
ALSO 1
IF 1
COULD 1
MAKE 1
COOKBOOK 1
SHARE 1
EXPERIENCE 1
FOOD 2
TEENS 1
FEEL 1
ORGANIC 1
EASILY 1
ACCESSIBLE 1
EVERYONE 1
SHOW 1
PEERS 1
SAID 1
OFTEN 1
CHEAPER 1
EASIER 1
GO 1
DRIVE 1
THRU 1
THEN 1
SNACK 1
PROVIDE 1
SNACKS 1
CLASSMATES 1
LOVE 1
ONCE 1
SOWN 1
NEVER 1
DIES 1
G 1
JEKYLLTHE 1
MORE 1
NUTRIENT 1
DENSE 1
FOODS 1
AS 1
BELIEVE 1
EXCELLENT 1
ONLY 1
FOE 1
LIFETIME 1
